
     RDKit          3D

 65 73  0  0  0  0  0  0  0  0999 V2000
    4.5040   -2.6640  -17.4020 C   0  0  0  0  0  0  0  0  0  0  0  0
    5.7990   -2.5260  -16.7650 N   0  0  0  0  0  0  0  0  0  0  0  0
    6.2660   -1.1840  -16.6040 C   0  0  0  0  0  0  0  0  0  0  0  0
    6.4710   -3.6100  -16.3560 C   0  0  0  0  0  0  0  0  0  0  0  0
    5.9610   -4.7130  -16.4850 O   0  0  0  0  0  0  0  0  0  0  0  0
    7.8310   -3.5320  -15.8340 C   0  0  0  0  0  0  0  0  0  0  0  0
    8.9430   -3.0430  -16.4430 C   0  0  0  0  0  0  0  0  0  0  0  0
   10.0360   -3.2670  -15.6110 C   0  0  0  0  0  0  0  0  0  0  0  0
   11.3910   -2.9970  -15.6920 C   0  0  0  0  0  0  0  0  0  0  0  0
   11.8800   -2.3300  -16.8040 C   0  0  0  0  0  0  0  0  0  0  0  0
   12.4200   -1.0960  -16.6980 C   0  0  0  0  0  0  0  0  0  0  0  0
   12.8950   -0.4740  -17.8400 C   0  0  0  0  0  0  0  0  0  0  0  0
   12.8280   -1.1260  -19.0390 C   0  0  0  0  0  0  0  0  0  0  0  0
   13.2800   -0.5360  -20.1310 N   0  0  0  0  0  0  0  0  0  0  0  0
   14.3650   -1.1160  -20.8220 C   0  0  0  0  0  0  0  0  0  0  0  0
   14.3220   -0.7260  -22.2100 C   0  0  0  0  0  0  0  0  0  0  0  0
   14.0710    0.7200  -22.3970 C   0  0  1  0  0  0  0  0  0  0  0  0
   13.8510    1.0030  -23.7030 N   0  0  0  0  0  0  0  0  0  0  0  0
   13.7100    2.3240  -23.9870 C   0  0  0  0  0  0  0  0  0  0  0  0
   13.3770    2.6200  -25.3120 C   0  0  0  0  0  0  0  0  0  0  0  0
   13.2540    1.5880  -26.2070 N   0  0  0  0  0  0  0  0  0  0  0  0
   12.7390    1.8100  -27.4370 C   0  0  0  0  0  0  0  0  0  0  0  0
   12.7080    0.8200  -28.3640 C   0  0  0  0  0  0  0  0  0  0  0  0
   12.1460    1.0790  -29.6120 C   0  0  0  0  0  0  0  0  0  0  0  0
   11.6540    2.3220  -29.8920 C   0  0  0  0  0  0  0  0  0  0  0  0
   11.0880    2.6280  -31.1720 C   0  0  0  0  0  0  0  0  0  0  0  0
    9.9430    2.0070  -31.6160 C   0  0  0  0  0  0  0  0  0  0  0  0
    9.4070    2.3530  -32.8330 C   0  0  0  0  0  0  0  0  0  0  0  0
   10.0780    3.3390  -33.5920 C   0  0  0  0  0  0  0  0  0  0  0  0
    9.6560    3.7000  -34.6820 O   0  0  0  0  0  0  0  0  0  0  0  0
   11.1940    3.9110  -33.1450 N   0  0  0  0  0  0  0  0  0  0  0  0
   11.7300    3.6120  -31.9640 C   0  0  0  0  0  0  0  0  0  0  0  0
   12.7410    4.2010  -31.6110 O   0  0  0  0  0  0  0  0  0  0  0  0
   11.7050    3.3080  -28.9640 C   0  0  0  0  0  0  0  0  0  0  0  0
   12.2410    3.0390  -27.7500 C   0  0  0  0  0  0  0  0  0  0  0  0
   12.2970    3.9800  -26.9160 F   0  0  0  0  0  0  0  0  0  0  0  0
   13.4990    0.2810  -25.8830 C   0  0  0  0  0  0  0  0  0  0  0  0
   13.9420   -0.0160  -24.5980 C   0  0  0  0  0  0  0  0  0  0  0  0
   12.8830    1.1650  -21.6200 C   0  0  0  0  0  0  0  0  0  0  0  0
   13.0150    0.8390  -20.2620 C   0  0  0  0  0  0  0  0  0  0  0  0
   12.2740   -2.3990  -19.0980 C   0  0  0  0  0  0  0  0  0  0  0  0
   12.1790   -3.0620  -20.2620 F   0  0  0  0  0  0  0  0  0  0  0  0
   11.8030   -2.9860  -17.9820 C   0  0  0  0  0  0  0  0  0  0  0  0
   11.2740   -4.2110  -18.0780 F   0  0  0  0  0  0  0  0  0  0  0  0
   12.2410   -3.4070  -14.6670 C   0  0  0  0  0  0  0  0  0  0  0  0
   11.8010   -4.0860  -13.5530 C   0  0  0  0  0  0  0  0  0  0  0  0
   12.8290   -4.5800  -12.5730 C   0  0  0  0  0  0  0  0  0  0  0  0
   14.2280   -4.7400  -13.1950 C   0  0  0  0  0  0  0  0  0  0  0  0
   15.3150   -5.0890  -12.1550 C   0  0  0  0  0  0  0  0  0  0  0  0
   15.2450   -4.1530  -10.9870 C   0  0  0  0  0  0  0  0  0  0  0  0
   13.8910   -4.2500  -10.5120 N   0  0  0  0  0  0  0  0  0  0  0  0
   13.5700   -5.0180   -9.4700 C   0  0  0  0  0  0  0  0  0  0  0  0
   12.4200   -5.3630   -9.2170 O   0  0  0  0  0  0  0  0  0  0  0  0
   14.6550   -5.4200   -8.5150 C   0  0  0  0  0  0  0  0  0  0  0  0
   14.3160   -4.8400   -7.1910 C   0  0  0  0  0  0  0  0  0  0  0  0
   13.8400   -5.8380   -6.2620 N   0  0  0  0  0  0  0  0  0  0  0  0
   13.6820   -7.1580   -6.4570 C   0  0  0  0  0  0  0  0  0  0  0  0
   13.1670   -7.7190   -5.2860 C   0  0  0  0  0  0  0  0  0  0  0  0
   13.0620   -6.6810   -4.4330 C   0  0  0  0  0  0  0  0  0  0  0  0
   13.4850   -5.5260   -5.0310 N   0  0  0  0  0  0  0  0  0  0  0  0
   12.9320   -3.7010  -11.4090 C   0  0  0  0  0  0  0  0  0  0  0  0
   10.4070   -4.3220  -13.4390 C   0  0  0  0  0  0  0  0  0  0  0  0
    9.9390   -4.9140  -12.3990 F   0  0  0  0  0  0  0  0  0  0  0  0
    9.5220   -3.9360  -14.4360 C   0  0  0  0  0  0  0  0  0  0  0  0
    8.1720   -4.0770  -14.5770 N   0  0  0  0  0  0  0  0  0  0  0  0
  2  1  1  0
  3  2  1  0
  4  2  1  0
  5  4  2  0
  6  4  1  0
  7  6  2  0
  8  7  1  0
  9  8  2  0
 10  9  1  0
 11 10  2  0
 12 11  1  0
 13 12  2  0
 14 13  1  0
 15 14  1  0
 16 15  1  0
 17 16  1  0
 17 18  1  6
 19 18  1  0
 20 19  1  0
 21 20  1  0
 22 21  1  0
 23 22  2  0
 24 23  1  0
 25 24  2  0
 26 25  1  0
 27 26  1  0
 28 27  1  0
 29 28  1  0
 30 29  2  0
 31 29  1  0
 32 31  1  0
 32 26  1  0
 33 32  2  0
 34 25  1  0
 35 34  2  0
 35 22  1  0
 36 35  1  0
 37 21  1  0
 38 37  1  0
 38 18  1  0
 39 17  1  0
 40 39  1  0
 40 14  1  0
 41 13  1  0
 42 41  1  0
 43 41  2  0
 43 10  1  0
 44 43  1  0
 45  9  1  0
 46 45  2  0
 47 46  1  0
 48 47  2  0
 49 48  1  0
 50 49  1  0
 51 50  1  0
 52 51  1  0
 53 52  2  0
 54 52  1  0
 55 54  1  0
 56 55  1  0
 57 56  1  0
 58 57  2  0
 59 58  1  0
 60 56  1  0
 60 59  2  0
 61 47  1  0
 61 51  1  0
 62 46  1  0
 63 62  1  0
 64 62  2  0
 64  8  1  0
 65 64  1  0
 65  6  1  0
M  END
$$$$
